  


 80 92  0  0  0  0  0  0  0  0  1 V2000
   21.2112   -1.2808    0.0000 C   0  0  0  0  0  0  0  0  0  0  0  0
   20.1804   -2.1867    0.0000 C   0  0  0  0  0  0  0  0  0  0  0  0
   19.0245   -1.6869    0.0000 O   0  0  0  0  0  0  0  0  0  0  0  0
   26.4594  -10.1214    0.0000 C   0  0  0  0  0  0  0  0  0  0  0  0
   26.0845  -11.4022    0.0000 C   0  0  0  0  0  0  0  0  0  0  0  0
   22.9919    0.0000    0.0000 C   0  0  0  0  0  0  0  0  0  0  0  0
   22.4920   -1.2808    0.0000 C   0  0  0  0  0  0  0  0  0  0  0  0
   23.2418   -2.1867    0.0000 C   0  0  0  0  0  0  0  0  0  0  0  0
   23.3980   -3.4675    0.0000 C   0  0  0  0  0  0  0  0  0  0  0  0
   22.4920   -4.4984    0.0000 C   0  0  0  0  0  0  0  0  0  0  0  0
   22.8669   -5.7792    0.0000 C   0  0  0  0  0  0  0  0  0  0  0  0
   24.1477   -6.1541    0.0000 C   0  0  0  0  0  0  0  0  0  0  0  0
   24.2727   -7.4349    0.0000 O   0  0  0  0  0  0  0  0  0  0  0  0
   26.9592   -4.2485    0.0000 C   0  0  0  0  0  0  0  0  0  0  0  0
   26.3344   -5.4043    0.0000 C   0  0  0  0  0  0  0  0  0  0  0  0
   25.0536   -5.1232    0.0000 C   0  0  0  0  0  0  0  0  0  0  0  0
   24.6788   -3.9673    0.0000 O   0  0  0  0  0  0  0  0  0  0  0  0
   24.2727   -9.9965    0.0000 C   0  0  0  0  0  0  0  0  0  0  0  0
   25.4285   -9.4966    0.0000 C   0  0  0  0  0  0  0  0  0  0  0  0
   25.4285   -8.0909    0.0000 C   0  0  0  0  0  0  0  0  0  0  0  0
   26.7093   -7.8410    0.0000 C   0  0  0  0  0  0  0  0  0  0  0  0
   26.9592   -6.5602    0.0000 C   0  0  0  0  0  0  0  0  0  0  0  0
   28.3962   -6.2790    0.0000 O   0  0  0  0  0  0  0  0  0  0  0  0
   21.2112   -4.3735    0.0000 O   0  0  0  0  0  0  0  0  0  0  0  0
   20.3053   -3.4675    0.0000 C   0  0  0  0  0  0  0  0  0  0  0  0
   19.1495   -4.1235    0.0000 C   0  0  0  0  0  0  0  0  0  0  0  0
   17.9936   -3.4675    0.0000 C   0  0  0  0  0  0  0  0  0  0  0  0
   17.5875   -4.8420    0.0000 O   0  0  0  0  0  0  0  0  0  0  0  0
   16.3380   -5.4043    0.0000 C   0  0  0  0  0  0  0  0  0  0  0  0
   16.7128   -6.5602    0.0000 C   0  0  0  0  0  0  0  0  0  0  0  0
   16.2130   -7.6848    0.0000 C   0  0  0  0  0  0  0  0  0  0  0  0
   15.0572   -8.2158    0.0000 C   0  0  0  0  0  0  0  0  0  0  0  0
   13.9013   -8.0909    0.0000 C   0  0  0  0  0  0  0  0  0  0  0  0
   12.8704   -7.3099    0.0000 C   0  0  0  0  0  0  0  0  0  0  0  0
   12.8704   -6.0291    0.0000 C   0  0  0  0  0  0  0  0  0  0  0  0
   11.8396   -5.2481    0.0000 C   0  0  0  0  0  0  0  0  0  0  0  0
   10.6837   -5.5293    0.0000 C   0  0  0  0  0  0  0  0  0  0  0  0
   10.0589   -6.6851    0.0000 C   0  0  0  0  0  0  0  0  0  0  0  0
    8.7781   -6.4040    0.0000 O   0  0  0  0  0  0  0  0  0  0  0  0
    7.7473   -7.1850    0.0000 C   0  0  0  0  0  0  0  0  0  0  0  0
    6.5914   -6.5602    0.0000 C   0  0  0  0  0  0  0  0  0  0  0  0
    5.4356   -7.1850    0.0000 C   0  0  0  0  0  0  0  0  0  0  0  0
    5.4356   -8.4658    0.0000 C   0  0  0  0  0  0  0  0  0  0  0  0
    4.2797   -9.2467    0.0000 C   0  0  0  0  0  0  0  0  0  0  0  0
    4.5609  -10.5275    0.0000 O   0  0  0  0  0  0  0  0  0  0  0  0
   27.6152   -8.7157    0.0000 O   0  0  0  0  0  0  0  0  0  0  0  0
   27.8651   -9.9965    0.0000 C   0  0  0  0  0  0  0  0  0  0  0  0
   29.1459   -9.8715    0.0000 C   0  0  0  0  0  0  0  0  0  0  0  0
   29.9269  -10.9024    0.0000 C   0  0  0  0  0  0  0  0  0  0  0  0
   29.0210  -11.9333    0.0000 C   0  0  0  0  0  0  0  0  0  0  0  0
   27.8651  -11.2773    0.0000 O   0  0  0  0  0  0  0  0  0  0  0  0
   14.0263   -5.2481    0.0000 O   0  0  0  0  0  0  0  0  0  0  0  0
   15.0572   -4.7483    0.0000 C   0  0  0  0  0  0  0  0  0  0  0  0
   15.1821   -3.4675    0.0000 C   0  0  0  0  0  0  0  0  0  0  0  0
   16.2130   -2.5616    0.0000 C   0  0  0  0  0  0  0  0  0  0  0  0
   17.8687   -2.1867    0.0000 C   0  0  0  0  0  0  0  0  0  0  0  0
   17.8687   -0.8747    0.0000 C   0  0  0  0  0  0  0  0  0  0  0  0
    4.2797   -6.5602    0.0000 O   0  0  0  0  0  0  0  0  0  0  0  0
   11.8396   -8.0909    0.0000 O   0  0  0  0  0  0  0  0  0  0  0  0
   10.5588   -7.8410    0.0000 C   0  0  0  0  0  0  0  0  0  0  0  0
   10.0589   -8.9968    0.0000 C   0  0  0  0  0  0  0  0  0  0  0  0
    8.7781   -9.3717    0.0000 C   0  0  0  0  0  0  0  0  0  0  0  0
    7.7473   -8.4658    0.0000 C   0  0  0  0  0  0  0  0  0  0  0  0
    6.5914   -9.2467    0.0000 O   0  0  0  0  0  0  0  0  0  0  0  0
    2.1242   -9.2467    0.0000 O   0  0  0  0  0  0  0  0  0  0  0  0
    3.1239   -8.5907    0.0000 C   0  0  0  0  0  0  0  0  0  0  0  0
    3.1239   -7.1850    0.0000 C   0  0  0  0  0  0  0  0  0  0  0  0
    2.1242   -6.4040    0.0000 C   0  0  0  0  0  0  0  0  0  0  0  0
    0.8122   -6.8101    0.0000 C   0  0  0  0  0  0  0  0  0  0  0  0
    0.1874   -7.9659    0.0000 C   0  0  0  0  0  0  0  0  0  0  0  0
    0.8122   -9.1218    0.0000 C   0  0  0  0  0  0  0  0  0  0  0  0
    0.0625  -10.1214    0.0000 C   0  0  0  0  0  0  0  0  0  0  0  0
    0.5623  -11.4022    0.0000 C   0  0  0  0  0  0  0  0  0  0  0  0
    2.4991  -11.9333    0.0000 C   0  0  0  0  0  0  0  0  0  0  0  0
    2.6241  -13.5889    0.0000 C   0  0  0  0  0  0  0  0  0  0  0  0
   16.2130   -0.9059    0.0000 O   0  0  0  0  0  0  0  0  0  0  0  0
    3.4988  -11.0898    0.0000 O   0  0  0  0  0  0  0  0  0  0  0  0
    1.5307  -14.3387    0.0000 O   0  0  0  0  0  0  0  0  0  0  0  0
   31.2389  -10.9649    0.0000 O   0  0  0  0  0  0  0  0  0  0  0  0
    0.0000   -5.7792    0.0000 O   0  0  0  0  0  0  0  0  0  0  0  0
  1  2  1  0  0  0  0
  1  7  1  0  0  0  0
  2  3  1  0  0  0  0
  2 25  1  0  0  0  0
  3 56  1  0  0  0  0
  4  5  1  0  0  0  0
  4 19  1  0  0  0  0
  4 47  1  0  0  0  0
  6  7  1  0  0  0  0
  7  8  1  0  0  0  0
  8  9  1  0  0  0  0
  9 10  1  0  0  0  0
  9 17  1  0  0  0  0
 10 11  1  0  0  0  0
 10 24  1  0  0  0  0
 11 12  1  0  0  0  0
 12 13  1  0  0  0  0
 12 16  1  0  0  0  0
 13 20  1  0  0  0  0
 14 15  1  0  0  0  0
 15 16  1  0  0  0  0
 15 22  1  0  0  0  0
 16 17  1  0  0  0  0
 18 19  1  0  0  0  0
 19 20  1  0  0  0  0
 20 21  1  0  0  0  0
 21 22  1  0  0  0  0
 21 46  1  0  0  0  0
 22 23  1  0  0  0  0
 24 25  1  0  0  0  0
 25 26  1  0  0  0  0
 26 27  1  0  0  0  0
 27 28  1  0  0  0  0
 27 56  1  0  0  0  0
 28 29  1  0  0  0  0
 29 30  1  0  0  0  0
 29 53  1  0  0  0  0
 30 31  1  0  0  0  0
 31 32  2  0  0  0  0
 32 33  1  0  0  0  0
 33 34  1  0  0  0  0
 34 35  1  0  0  0  0
 34 59  1  0  0  0  0
 35 36  1  0  0  0  0
 35 52  1  0  0  0  0
 36 37  2  0  0  0  0
 37 38  1  0  0  0  0
 38 39  1  0  0  0  0
 38 60  1  0  0  0  0
 39 40  1  0  0  0  0
 40 41  1  0  0  0  0
 40 63  1  0  0  0  0
 41 42  1  0  0  0  0
 42 43  1  0  0  0  0
 42 58  1  0  0  0  0
 43 44  1  0  0  0  0
 43 64  1  0  0  0  0
 44 45  1  0  0  0  0
 44 66  1  0  0  0  0
 46 47  1  0  0  0  0
 47 48  1  0  0  0  0
 47 51  1  0  0  0  0
 48 49  1  0  0  0  0
 49 50  1  0  0  0  0
 49 79  1  0  0  0  0
 50 51  1  0  0  0  0
 52 53  1  0  0  0  0
 53 54  1  0  0  0  0
 54 55  1  0  0  0  0
 55 56  1  0  0  0  0
 55 76  1  0  0  0  0
 56 57  1  0  0  0  0
 58 67  1  0  0  0  0
 59 60  1  0  0  0  0
 60 61  1  0  0  0  0
 61 62  2  0  0  0  0
 62 63  1  0  0  0  0
 63 64  1  0  0  0  0
 65 66  1  0  0  0  0
 65 71  1  0  0  0  0
 66 67  1  0  0  0  0
 67 68  1  0  0  0  0
 68 69  1  0  0  0  0
 69 70  1  0  0  0  0
 69 80  1  0  0  0  0
 70 71  1  0  0  0  0
 71 72  1  0  0  0  0
 72 73  2  0  0  0  0
 73 74  1  0  0  0  0
 74 75  1  0  0  0  0
 74 77  1  0  0  0  0
 75 78  1  0  0  0  0
M  END
>  <ID>


$$$$